j1_simplified model with compesation generators/j1/Loads.dss
New "Load.gin3p_seg_1_1a" phases=1 bus1=5964927408.1 kV=7.899 kW=126.7223 kvar=6.6072 Vmaxpu=1.5 Vminpu=0.5
New "Load.gin3p_seg_1_1b" phases=1 bus1=5964927408.2 kV=7.9142 kW=-13.3703 kvar=20.4446 Vmaxpu=1.5 Vminpu=0.5
New "Load.gin3p_seg_1_1c" phases=1 bus1=5964927408.3 kV=7.8903 kW=157.2209 kvar=146.1031 Vmaxpu=1.5 Vminpu=0.5
New "Load.gin3p_seg_1_2a" phases=1 bus1=5964927408.1 kV=7.9337 kW=-97.6386 kvar=6.3374 Vmaxpu=1.5 Vminpu=0.5
New "Load.gin3p_seg_1_2b" phases=1 bus1=5964927408.2 kV=7.9285 kW=48.9016 kvar=65.4667 Vmaxpu=1.5 Vminpu=0.5
New "Load.gin3p_seg_1_2c" phases=1 bus1=5964927408.3 kV=7.933 kW=38.6207 kvar=-74.5617 Vmaxpu=1.5 Vminpu=0.5
New "Load.gin3p_seg_1_3a" phases=1 bus1=5964927408.1 kV=7.9382 kW=-23.3594 kvar=12.5278 Vmaxpu=1.5 Vminpu=0.5
New "Load.gin3p_seg_1_3b" phases=1 bus1=5964927408.2 kV=7.9378 kW=20.7296 kvar=10.3708 Vmaxpu=1.5 Vminpu=0.5
New "Load.gin3p_seg_1_3c" phases=1 bus1=5964927408.3 kV=7.9405 kW=2.4643 kvar=-24.5043 Vmaxpu=1.5 Vminpu=0.5
New "Load.gin3p_seg_1_4a" phases=1 bus1=5964927408.1 kV=7.939 kW=-35.5776 kvar=4.7294 Vmaxpu=1.5 Vminpu=0.5
New "Load.gin3p_seg_1_4b" phases=1 bus1=5964927408.2 kV=7.9379 kW=20.5303 kvar=23.1293 Vmaxpu=1.5 Vminpu=0.5
New "Load.gin3p_seg_1_4c" phases=1 bus1=5964927408.3 kV=7.9405 kW=13.9866 kvar=-29.2172 Vmaxpu=1.5 Vminpu=0.5
New "Load.gin3p_seg_1_5a" phases=1 bus1=5964927408.1 kV=7.9371 kW=-30.5815 kvar=11.7624 Vmaxpu=1.5 Vminpu=0.5
New "Load.gin3p_seg_1_5b" phases=1 bus1=5964927408.2 kV=7.9363 kW=23.3046 kvar=15.6564 Vmaxpu=1.5 Vminpu=0.5
New "Load.gin3p_seg_1_5c" phases=1 bus1=5964927408.3 kV=7.9392 kW=5.7829 kvar=-29.3894 Vmaxpu=1.5 Vminpu=0.5
New "Load.gin3p_seg_1_6a" phases=1 bus1=5964927408.1 kV=7.8684 kW=192.9113 kvar=-1488.3369 Vmaxpu=1.5 Vminpu=0.5
New "Load.gin3p_seg_1_6b" phases=1 bus1=5964927408.2 kV=7.8829 kW=-1181.9003 kvar=558.1879 Vmaxpu=1.5 Vminpu=0.5
New "Load.gin3p_seg_1_6c" phases=1 bus1=5964927408.3 kV=7.7811 kW=908.2368 kvar=812.8806 Vmaxpu=1.5 Vminpu=0.5
New "Load.gin3p_seg_1_7a" phases=1 bus1=5964927408.1 kV=7.9351 kW=-85.0304 kvar=7.2724 Vmaxpu=1.5 Vminpu=0.5
New "Load.gin3p_seg_1_7b" phases=1 bus1=5964927408.2 kV=7.9307 kW=44.0735 kvar=56.35 Vmaxpu=1.5 Vminpu=0.5
New "Load.gin3p_seg_1_7c" phases=1 bus1=5964927408.3 kV=7.9349 kW=32.9167 kvar=-65.9084 Vmaxpu=1.5 Vminpu=0.5
New "Load.gin3p_seg_1_8a" phases=1 bus1=5964927408.1 kV=7.9381 kW=-14.6858 kvar=7.7952 Vmaxpu=1.5 Vminpu=0.5
New "Load.gin3p_seg_1_8b" phases=1 bus1=5964927408.2 kV=7.9384 kW=13.4092 kvar=6.405 Vmaxpu=1.5 Vminpu=0.5
New "Load.gin3p_seg_1_8c" phases=1 bus1=5964927408.3 kV=7.9406 kW=1.7372 kvar=-16.1275 Vmaxpu=1.5 Vminpu=0.5
New "Load.gin3p_seg_1_9a" phases=1 bus1=5964927408.1 kV=7.9136 kW=-33.7488 kvar=115.5039 Vmaxpu=1.5 Vminpu=0.5
New "Load.gin3p_seg_1_9b" phases=1 bus1=5964927408.2 kV=7.9129 kW=98.7348 kvar=-38.172 Vmaxpu=1.5 Vminpu=0.5
New "Load.gin3p_seg_1_9c" phases=1 bus1=5964927408.3 kV=7.9214 kW=-77.3175 kvar=-85.3931 Vmaxpu=1.5 Vminpu=0.5
New "Load.gin3p_seg_1_10a" phases=1 bus1=5964927408.1 kV=7.9391 kW=-14.7846 kvar=-7.0934 Vmaxpu=1.5 Vminpu=0.5
New "Load.gin3p_seg_1_10b" phases=1 bus1=5964927408.2 kV=7.9393 kW=2.6583 kvar=13.8582 Vmaxpu=1.5 Vminpu=0.5
New "Load.gin3p_seg_1_10c" phases=1 bus1=5964927408.3 kV=7.9406 kW=12.5926 kvar=-8.9016 Vmaxpu=1.5 Vminpu=0.5
New "Load.gin3p_seg_1_11a" phases=1 bus1=5964927408.1 kV=7.9343 kW=-27.1919 kvar=-6.2736 Vmaxpu=1.5 Vminpu=0.5
New "Load.gin3p_seg_1_11b" phases=1 bus1=5964927408.2 kV=7.9339 kW=8.4234 kvar=21.1253 Vmaxpu=1.5 Vminpu=0.5
New "Load.gin3p_seg_1_11c" phases=1 bus1=5964927408.3 kV=7.9355 kW=15.2339 kvar=-18.8036 Vmaxpu=1.5 Vminpu=0.5
New "Load.gin3p_seg_1_12a" phases=1 bus1=5964927408.1 kV=7.938 kW=-1.907 kvar=-43.4281 Vmaxpu=1.5 Vminpu=0.5
New "Load.gin3p_seg_1_12b" phases=1 bus1=5964927408.2 kV=7.9393 kW=-29.6738 kvar=21.757 Vmaxpu=1.5 Vminpu=0.5
New "Load.gin3p_seg_1_12c" phases=1 bus1=5964927408.3 kV=7.938 kW=31.325 kvar=17.4254 Vmaxpu=1.5 Vminpu=0.5
New "Load.gin3p_seg_1_13a" phases=1 bus1=5964927408.1 kV=7.939 kW=-14.7846 kvar=-7.0933 Vmaxpu=1.5 Vminpu=0.5
New "Load.gin3p_seg_1_13b" phases=1 bus1=5964927408.2 kV=7.9393 kW=2.6584 kvar=13.8581 Vmaxpu=1.5 Vminpu=0.5
New "Load.gin3p_seg_1_13c" phases=1 bus1=5964927408.3 kV=7.9406 kW=12.5925 kvar=-8.9016 Vmaxpu=1.5 Vminpu=0.5
New "Load.gin3p_seg_1_14a" phases=1 bus1=5964927408.1 kV=7.9375 kW=0.33494 kvar=-166.3054 Vmaxpu=1.5 Vminpu=0.5
New "Load.gin3p_seg_1_14b" phases=1 bus1=5964927408.2 kV=7.9394 kW=-120.4532 kvar=79.0111 Vmaxpu=1.5 Vminpu=0.5
New "Load.gin3p_seg_1_14c" phases=1 bus1=5964927408.3 kV=7.9307 kW=115.3711 kvar=77.671 Vmaxpu=1.5 Vminpu=0.5
New "Load.gin3p_seg_1_15a" phases=1 bus1=5964927408.1 kV=7.916 kW=-248.9101 kvar=238.0825 Vmaxpu=1.5 Vminpu=0.5
New "Load.gin3p_seg_1_15b" phases=1 bus1=5964927408.2 kV=7.8999 kW=283.6697 kvar=57.402 Vmaxpu=1.5 Vminpu=0.5
New "Load.gin3p_seg_1_15c" phases=1 bus1=5964927408.3 kV=7.9231 kW=-61.6006 kvar=-295.5734 Vmaxpu=1.5 Vminpu=0.5
New "Load.gin3p_seg_1_16a" phases=1 bus1=5964927408.1 kV=7.939 kW=-14.7408 kvar=-7.1569 Vmaxpu=1.5 Vminpu=0.5
New "Load.gin3p_seg_1_16b" phases=1 bus1=5964927408.2 kV=7.9393 kW=2.5903 kvar=13.8547 Vmaxpu=1.5 Vminpu=0.5
New "Load.gin3p_seg_1_16c" phases=1 bus1=5964927408.3 kV=7.9406 kW=12.6155 kvar=-8.8393 Vmaxpu=1.5 Vminpu=0.5
New "Load.gin3p_seg_1_17a" phases=1 bus1=5964927408.1 kV=7.939 kW=-14.7408 kvar=-7.1569 Vmaxpu=1.5 Vminpu=0.5
New "Load.gin3p_seg_1_17b" phases=1 bus1=5964927408.2 kV=7.9393 kW=2.5903 kvar=13.8547 Vmaxpu=1.5 Vminpu=0.5
New "Load.gin3p_seg_1_17c" phases=1 bus1=5964927408.3 kV=7.9406 kW=12.6155 kvar=-8.8393 Vmaxpu=1.5 Vminpu=0.5
New "Load.gin3p_seg_1_18a" phases=1 bus1=5964927408.1 kV=7.9163 kW=-490.6545 kvar=388.7914 Vmaxpu=1.5 Vminpu=0.5
New "Load.gin3p_seg_1_18b" phases=1 bus1=5964927408.2 kV=7.8825 kW=500.4706 kvar=156.2997 Vmaxpu=1.5 Vminpu=0.5
New "Load.gin3p_seg_1_18c" phases=1 bus1=5964927408.3 kV=7.9239 kW=-53.8673 kvar=-538.5028 Vmaxpu=1.5 Vminpu=0.5
New "Load.gin3p_seg_1_19a" phases=1 bus1=5964927408.1 kV=7.9276 kW=137.3929 kvar=-1158.4908 Vmaxpu=1.5 Vminpu=0.5
New "Load.gin3p_seg_1_19b" phases=1 bus1=5964927408.2 kV=7.9388 kW=-909.5031 kvar=454.0154 Vmaxpu=1.5 Vminpu=0.5
New "Load.gin3p_seg_1_19c" phases=1 bus1=5964927408.3 kV=7.8648 kW=735.7302 kvar=635.5922 Vmaxpu=1.5 Vminpu=0.5
New "Load.gin3p_seg_1_20a" phases=1 bus1=5964927408.1 kV=7.9375 kW=5.4222 kvar=6.1342 Vmaxpu=1.5 Vminpu=0.5
New "Load.gin3p_seg_1_20b" phases=1 bus1=5964927408.2 kV=7.9392 kW=3.2476 kvar=-7.4084 Vmaxpu=1.5 Vminpu=0.5
New "Load.gin3p_seg_1_20c" phases=1 bus1=5964927408.3 kV=7.9406 kW=-6.6996 kvar=-1.2798 Vmaxpu=1.5 Vminpu=0.5
New "Load.gin3p_seg_1_21a" phases=1 bus1=5964927408.1 kV=7.9381 kW=-2.7194 kvar=0.85292 Vmaxpu=1.5 Vminpu=0.5
New "Load.gin3p_seg_1_21b" phases=1 bus1=5964927408.2 kV=7.9392 kW=3.0479 kvar=1.1375 Vmaxpu=1.5 Vminpu=0.5
New "Load.gin3p_seg_1_21c" phases=1 bus1=5964927408.3 kV=7.9406 kW=1.0414 kvar=-4.3788 Vmaxpu=1.5 Vminpu=0.5
New "Load.gin3p_seg_1_22a" phases=1 bus1=5964927408.1 kV=7.8065 kW=741.3207 kvar=1655.3311 Vmaxpu=1.5 Vminpu=0.5
New "Load.gin3p_seg_1_22b" phases=1 bus1=5964927408.2 kV=7.8603 kW=892.0495 kvar=-1362.942 Vmaxpu=1.5 Vminpu=0.5
New "Load.gin3p_seg_1_22c" phases=1 bus1=5964927408.3 kV=7.9376 kW=-1577.2504 kvar=-329.1384 Vmaxpu=1.5 Vminpu=0.5
New "Load.gin3p_seg_1_23a" phases=1 bus1=5964927408.1 kV=7.9391 kW=-220.4405 kvar=108.4561 Vmaxpu=1.5 Vminpu=0.5
New "Load.gin3p_seg_1_23b" phases=1 bus1=5964927408.2 kV=7.9251 kW=178.3369 kvar=105.732 Vmaxpu=1.5 Vminpu=0.5
New "Load.gin3p_seg_1_23c" phases=1 bus1=5964927408.3 kV=7.9398 kW=27.3949 kvar=-209.1681 Vmaxpu=1.5 Vminpu=0.5
New "Load.aggload_junction_1a" phases=1 bus1=b4909.1 kV=7.0547 kW=0 kvar=0 yearly=other Vmaxpu=1.5 Vminpu=0.5 enabled=true
New "Load.aggload_junction_1b" phases=1 bus1=b4909.2 kV=6.9688 kW=0 kvar=0 yearly=other Vmaxpu=1.5 Vminpu=0.5 enabled=true
New "Load.aggload_junction_1c" phases=1 bus1=b4909.3 kV=6.9955 kW=0 kvar=0 yearly=other Vmaxpu=1.5 Vminpu=0.5 enabled=true
New "Load.gout3p_seg_1_1a" phases=1 bus1=b4909.1 kV=7.8856 kW=43.4017 kvar=117.5969 Vmaxpu=1.5 Vminpu=0.5
New "Load.gout3p_seg_1_1b" phases=1 bus1=b4909.2 kV=7.9028 kW=129.5406 kvar=57.1776 Vmaxpu=1.5 Vminpu=0.5
New "Load.gout3p_seg_1_1c" phases=1 bus1=b4909.3 kV=7.8704 kW=92.8607 kvar=13.4765 Vmaxpu=1.5 Vminpu=0.5
New "Load.gin3p_seg_2_1a" phases=1 bus1=b4909.1 kV=7.8856 kW=-12.1922 kvar=-6.417 Vmaxpu=1.5 Vminpu=0.5
New "Load.gin3p_seg_2_1b" phases=1 bus1=b4909.2 kV=7.9028 kW=1.2266 kvar=11.6105 Vmaxpu=1.5 Vminpu=0.5
New "Load.gin3p_seg_2_1c" phases=1 bus1=b4909.3 kV=7.8704 kW=10.5958 kvar=-5.7907 Vmaxpu=1.5 Vminpu=0.5
New "Load.gout3p_seg_1_2a" phases=1 bus1=b4909.1 kV=7.9325 kW=97.6239 kvar=-6.3484 Vmaxpu=1.5 Vminpu=0.5
New "Load.gout3p_seg_1_2b" phases=1 bus1=b4909.2 kV=7.9149 kW=-48.9318 kvar=-65.2636 Vmaxpu=1.5 Vminpu=0.5
New "Load.gout3p_seg_1_2c" phases=1 bus1=b4909.3 kV=7.9337 kW=-38.4806 kvar=74.6499 Vmaxpu=1.5 Vminpu=0.5
New "Load.gin3p_seg_2_2a" phases=1 bus1=b4909.1 kV=7.9325 kW=-55.9875 kvar=-1.1178 Vmaxpu=1.5 Vminpu=0.5
New "Load.gin3p_seg_2_2b" phases=1 bus1=b4909.2 kV=7.9149 kW=43.6411 kvar=62.9211 Vmaxpu=1.5 Vminpu=0.5
New "Load.gin3p_seg_2_2c" phases=1 bus1=b4909.3 kV=7.9337 kW=49.2542 kvar=-36.3542 Vmaxpu=1.5 Vminpu=0.5
New "Load.gout3p_seg_1_3a" phases=1 bus1=b4909.1 kV=7.9393 kW=23.3592 kvar=-12.536 Vmaxpu=1.5 Vminpu=0.5
New "Load.gout3p_seg_1_3b" phases=1 bus1=b4909.2 kV=7.9379 kW=-20.7375 kvar=-10.3548 Vmaxpu=1.5 Vminpu=0.5
New "Load.gout3p_seg_1_3c" phases=1 bus1=b4909.3 kV=7.9457 kW=-2.4498 kvar=24.5215 Vmaxpu=1.5 Vminpu=0.5
New "Load.gin3p_seg_2_3a" phases=1 bus1=b4909.1 kV=7.9393 kW=-20.7545 kvar=12.7854 Vmaxpu=1.5 Vminpu=0.5
New "Load.gin3p_seg_2_3b" phases=1 bus1=b4909.2 kV=7.9379 kW=18.6883 kvar=8.6539 Vmaxpu=1.5 Vminpu=0.5
New "Load.gin3p_seg_2_3c" phases=1 bus1=b4909.3 kV=7.9457 kW=0.94256 kvar=-21.3934 Vmaxpu=1.5 Vminpu=0.5
New "Load.gout3p_seg_1_4a" phases=1 bus1=b4909.1 kV=7.9417 kW=35.5888 kvar=-4.7364 Vmaxpu=1.5 Vminpu=0.5
New "Load.gout3p_seg_1_4b" phases=1 bus1=b4909.2 kV=7.9372 kW=-20.5451 kvar=-23.1123 Vmaxpu=1.5 Vminpu=0.5
New "Load.gout3p_seg_1_4c" phases=1 bus1=b4909.3 kV=7.9458 kW=-13.9737 kvar=29.247 Vmaxpu=1.5 Vminpu=0.5
New "Load.gin3p_seg_2_4a" phases=1 bus1=b4909.1 kV=7.9417 kW=-32.6921 kvar=4.8758 Vmaxpu=1.5 Vminpu=0.5
New "Load.gin3p_seg_2_4b" phases=1 bus1=b4909.2 kV=7.9372 kW=18.5255 kvar=20.7032 Vmaxpu=1.5 Vminpu=0.5
New "Load.gin3p_seg_2_4c" phases=1 bus1=b4909.3 kV=7.9458 kW=12.4421 kvar=-26.0802 Vmaxpu=1.5 Vminpu=0.5
New "Load.gout3p_seg_1_5a" phases=1 bus1=b4909.1 kV=7.9376 kW=30.5794 kvar=-11.7718 Vmaxpu=1.5 Vminpu=0.5
New "Load.gout3p_seg_1_5b" phases=1 bus1=b4909.2 kV=7.9345 kW=-23.3131 kvar=-15.6306 Vmaxpu=1.5 Vminpu=0.5
New "Load.gout3p_seg_1_5c" phases=1 bus1=b4909.3 kV=7.9433 kW=-5.7604 kvar=29.4111 Vmaxpu=1.5 Vminpu=0.5
New "Load.gin3p_seg_2_5a" phases=1 bus1=b4909.1 kV=7.9376 kW=-27.4816 kvar=11.9758 Vmaxpu=1.5 Vminpu=0.5
New "Load.gin3p_seg_2_5b" phases=1 bus1=b4909.2 kV=7.9345 kW=21.1093 kvar=13.6715 Vmaxpu=1.5 Vminpu=0.5
New "Load.gin3p_seg_2_5c" phases=1 bus1=b4909.3 kV=7.9433 kW=4.7232 kvar=-25.8445 Vmaxpu=1.5 Vminpu=0.5
New "Load.gout3p_seg_1_6a" phases=1 bus1=b4909.1 kV=7.8914 kW=-178.9525 kvar=1494.5507 Vmaxpu=1.5 Vminpu=0.5
New "Load.gout3p_seg_1_6b" phases=1 bus1=b4909.2 kV=7.8154 kW=1174.3883 kvar=-547.8485 Vmaxpu=1.5 Vminpu=0.5
New "Load.gout3p_seg_1_6c" phases=1 bus1=b4909.3 kV=7.5663 kW=-902.0943 kvar=-768.4887 Vmaxpu=1.5 Vminpu=0.5
New "Load.gin3p_seg_2_6a" phases=1 bus1=b4909.1 kV=7.8914 kW=199.7352 kvar=-1464.4081 Vmaxpu=1.5 Vminpu=0.5
New "Load.gin3p_seg_2_6b" phases=1 bus1=b4909.2 kV=7.8154 kW=-1127.4021 kvar=511.2235 Vmaxpu=1.5 Vminpu=0.5
New "Load.gin3p_seg_2_6c" phases=1 bus1=b4909.3 kV=7.5663 kW=935.5275 kvar=799.9809 Vmaxpu=1.5 Vminpu=0.5
New "Load.gout3p_seg_1_7a" phases=1 bus1=b4909.1 kV=7.9349 kW=85.0281 kvar=-7.2804 Vmaxpu=1.5 Vminpu=0.5
New "Load.gout3p_seg_1_7b" phases=1 bus1=b4909.2 kV=7.92 kW=-44.0995 kvar=-56.2033 Vmaxpu=1.5 Vminpu=0.5
New "Load.gout3p_seg_1_7c" phases=1 bus1=b4909.3 kV=7.9369 kW=-32.8172 kvar=65.9846 Vmaxpu=1.5 Vminpu=0.5
New "Load.gin3p_seg_2_7a" phases=1 bus1=b4909.1 kV=7.9349 kW=-79.4668 kvar=6.8242 Vmaxpu=1.5 Vminpu=0.5
New "Load.gin3p_seg_2_7b" phases=1 bus1=b4909.2 kV=7.92 kW=40.8927 kvar=52.1723 Vmaxpu=1.5 Vminpu=0.5
New "Load.gin3p_seg_2_7c" phases=1 bus1=b4909.3 kV=7.9369 kW=33.3886 kvar=-60.7535 Vmaxpu=1.5 Vminpu=0.5
New "Load.gout3p_seg_1_8a" phases=1 bus1=b4909.1 kV=7.9394 kW=14.6854 kvar=-7.8011 Vmaxpu=1.5 Vminpu=0.5
New "Load.gout3p_seg_1_8b" phases=1 bus1=b4909.2 kV=7.9395 kW=-13.4151 kvar=-6.3969 Vmaxpu=1.5 Vminpu=0.5
New "Load.gout3p_seg_1_8c" phases=1 bus1=b4909.3 kV=7.9451 kW=-1.728 kvar=16.1378 Vmaxpu=1.5 Vminpu=0.5
New "Load.gin3p_seg_2_8a" phases=1 bus1=b4909.1 kV=7.9394 kW=-12.3623 kvar=8.2573 Vmaxpu=1.5 Vminpu=0.5
New "Load.gin3p_seg_2_8b" phases=1 bus1=b4909.2 kV=7.9395 kW=11.6856 kvar=4.8728 Vmaxpu=1.5 Vminpu=0.5
New "Load.gin3p_seg_2_8c" phases=1 bus1=b4909.3 kV=7.9451 kW=0.13199 kvar=-13.1268 Vmaxpu=1.5 Vminpu=0.5
New "Load.gout3p_seg_1_9a" phases=1 bus1=b4909.1 kV=7.8868 kW=33.3922 kvar=-115.1653 Vmaxpu=1.5 Vminpu=0.5
New "Load.gout3p_seg_1_9b" phases=1 bus1=b4909.2 kV=7.8888 kW=-98.2845 kvar=38.4474 Vmaxpu=1.5 Vminpu=0.5
New "Load.gout3p_seg_1_9c" phases=1 bus1=b4909.3 kV=7.9133 kW=77.4438 kvar=85.1522 Vmaxpu=1.5 Vminpu=0.5
New "Load.gin3p_seg_2_9a" phases=1 bus1=b4909.1 kV=7.8868 kW=-25.5673 kvar=114.9048 Vmaxpu=1.5 Vminpu=0.5
New "Load.gin3p_seg_2_9b" phases=1 bus1=b4909.2 kV=7.8888 kW=92.0345 kvar=-36.7196 Vmaxpu=1.5 Vminpu=0.5
New "Load.gin3p_seg_2_9c" phases=1 bus1=b4909.3 kV=7.9133 kW=-71.5335 kvar=-75.5797 Vmaxpu=1.5 Vminpu=0.5
New "Load.gout3p_seg_1_10a" phases=1 bus1=b4909.1 kV=7.942 kW=14.7923 kvar=7.0915 Vmaxpu=1.5 Vminpu=0.5
New "Load.gout3p_seg_1_10b" phases=1 bus1=b4909.2 kV=7.9411 kW=-2.6651 kvar=-13.8602 Vmaxpu=1.5 Vminpu=0.5
New "Load.gout3p_seg_1_10c" phases=1 bus1=b4909.3 kV=7.9446 kW=-12.5926 kvar=8.9149 Vmaxpu=1.5 Vminpu=0.5
New "Load.gin3p_seg_2_10a" phases=1 bus1=b4909.1 kV=7.942 kW=-12.5823 kvar=-6.4392 Vmaxpu=1.5 Vminpu=0.5
New "Load.gin3p_seg_2_10b" phases=1 bus1=b4909.2 kV=7.9411 kW=1.4203 kvar=11.8668 Vmaxpu=1.5 Vminpu=0.5
New "Load.gin3p_seg_2_10c" phases=1 bus1=b4909.3 kV=7.9446 kW=10.8437 kvar=-6.0476 Vmaxpu=1.5 Vminpu=0.5
New "Load.gout3p_seg_1_11a" phases=1 bus1=b4909.1 kV=7.9332 kW=27.1923 kvar=6.2594 Vmaxpu=1.5 Vminpu=0.5
New "Load.gout3p_seg_1_11b" phases=1 bus1=b4909.2 kV=7.9295 kW=-8.4394 kvar=-21.1026 Vmaxpu=1.5 Vminpu=0.5
New "Load.gout3p_seg_1_11c" phases=1 bus1=b4909.3 kV=7.9352 kW=-15.2058 kvar=18.8297 Vmaxpu=1.5 Vminpu=0.5
New "Load.gin3p_seg_2_11a" phases=1 bus1=b4909.1 kV=7.9332 kW=-23.4894 kvar=-5.5637 Vmaxpu=1.5 Vminpu=0.5
New "Load.gin3p_seg_2_11b" phases=1 bus1=b4909.2 kV=7.9295 kW=6.762 kvar=18.819 Vmaxpu=1.5 Vminpu=0.5
New "Load.gin3p_seg_2_11c" phases=1 bus1=b4909.3 kV=7.9352 kW=15.2395 kvar=-14.3757 Vmaxpu=1.5 Vminpu=0.5
New "Load.gout3p_seg_1_12a" phases=1 bus1=b4909.1 kV=7.9419 kW=1.9317 kvar=43.4491 Vmaxpu=1.5 Vminpu=0.5
New "Load.gout3p_seg_1_12b" phases=1 bus1=b4909.2 kV=7.9412 kW=29.6773 kvar=-21.7675 Vmaxpu=1.5 Vminpu=0.5
New "Load.gout3p_seg_1_12c" phases=1 bus1=b4909.3 kV=7.9374 kW=-31.3408 kvar=-17.3855 Vmaxpu=1.5 Vminpu=0.5
New "Load.gin3p_seg_2_12a" phases=1 bus1=b4909.1 kV=7.9419 kW=0.24695 kvar=-41.9538 Vmaxpu=1.5 Vminpu=0.5
New "Load.gin3p_seg_2_12b" phases=1 bus1=b4909.2 kV=7.9412 kW=-29.5817 kvar=19.2044 Vmaxpu=1.5 Vminpu=0.5
New "Load.gin3p_seg_2_12c" phases=1 bus1=b4909.3 kV=7.9374 kW=30.0846 kvar=20.5923 Vmaxpu=1.5 Vminpu=0.5
New "Load.gout3p_seg_1_13a" phases=1 bus1=b4909.1 kV=7.942 kW=14.7923 kvar=7.0913 Vmaxpu=1.5 Vminpu=0.5
New "Load.gout3p_seg_1_13b" phases=1 bus1=b4909.2 kV=7.9411 kW=-2.6652 kvar=-13.8601 Vmaxpu=1.5 Vminpu=0.5
New "Load.gout3p_seg_1_13c" phases=1 bus1=b4909.3 kV=7.9446 kW=-12.5925 kvar=8.9149 Vmaxpu=1.5 Vminpu=0.5
New "Load.gin3p_seg_2_13a" phases=1 bus1=b4909.1 kV=7.942 kW=-12.5823 kvar=-6.439 Vmaxpu=1.5 Vminpu=0.5
New "Load.gin3p_seg_2_13b" phases=1 bus1=b4909.2 kV=7.9411 kW=1.4204 kvar=11.8667 Vmaxpu=1.5 Vminpu=0.5
New "Load.gin3p_seg_2_13c" phases=1 bus1=b4909.3 kV=7.9446 kW=10.8436 kvar=-6.0476 Vmaxpu=1.5 Vminpu=0.5
New "Load.gout3p_seg_1_14a" phases=1 bus1=b4909.1 kV=7.9481 kW=-0.20576 kvar=166.5279 Vmaxpu=1.5 Vminpu=0.5
New "Load.gout3p_seg_1_14b" phases=1 bus1=b4909.2 kV=7.9396 kW=120.5095 kvar=-78.9326 Vmaxpu=1.5 Vminpu=0.5
New "Load.gout3p_seg_1_14c" phases=1 bus1=b4909.3 kV=7.9177 kW=-115.3725 kvar=-77.2398 Vmaxpu=1.5 Vminpu=0.5
New "Load.gin3p_seg_2_14a" phases=1 bus1=b4909.1 kV=7.9481 kW=3.1024 kvar=-162.9891 Vmaxpu=1.5 Vminpu=0.5
New "Load.gin3p_seg_2_14b" phases=1 bus1=b4909.2 kV=7.9396 kW=-116.5845 kvar=72.8244 Vmaxpu=1.5 Vminpu=0.5
New "Load.gin3p_seg_2_14c" phases=1 bus1=b4909.3 kV=7.9177 kW=115.4173 kvar=81.4999 Vmaxpu=1.5 Vminpu=0.5
New "Load.gout3p_seg_1_15a" phases=1 bus1=b4909.1 kV=7.888 kW=247.9746 kvar=-237.2844 Vmaxpu=1.5 Vminpu=0.5
New "Load.gout3p_seg_1_15b" phases=1 bus1=b4909.2 kV=7.8529 kW=-282.3368 kvar=-55.2457 Vmaxpu=1.5 Vminpu=0.5
New "Load.gout3p_seg_1_15c" phases=1 bus1=b4909.3 kV=7.9306 kW=62.4141 kvar=295.7181 Vmaxpu=1.5 Vminpu=0.5
New "Load.gin3p_seg_2_15a" phases=1 bus1=b4909.1 kV=7.888 kW=-233.5375 kvar=231.7355 Vmaxpu=1.5 Vminpu=0.5
New "Load.gin3p_seg_2_15b" phases=1 bus1=b4909.2 kV=7.8529 kW=268.2203 kvar=52.7733 Vmaxpu=1.5 Vminpu=0.5
New "Load.gin3p_seg_2_15c" phases=1 bus1=b4909.3 kV=7.9306 kW=-55.1153 kvar=-283.6847 Vmaxpu=1.5 Vminpu=0.5
New "Load.gout3p_seg_1_16a" phases=1 bus1=b4909.1 kV=7.942 kW=14.7486 kvar=7.155 Vmaxpu=1.5 Vminpu=0.5
New "Load.gout3p_seg_1_16b" phases=1 bus1=b4909.2 kV=7.9411 kW=-2.597 kvar=-13.8567 Vmaxpu=1.5 Vminpu=0.5
New "Load.gout3p_seg_1_16c" phases=1 bus1=b4909.3 kV=7.9446 kW=-12.6156 kvar=8.8526 Vmaxpu=1.5 Vminpu=0.5
New "Load.gin3p_seg_2_16a" phases=1 bus1=b4909.1 kV=7.942 kW=-12.538 kvar=-6.5012 Vmaxpu=1.5 Vminpu=0.5
New "Load.gin3p_seg_2_16b" phases=1 bus1=b4909.2 kV=7.9411 kW=1.3561 kvar=11.8637 Vmaxpu=1.5 Vminpu=0.5
New "Load.gin3p_seg_2_16c" phases=1 bus1=b4909.3 kV=7.9446 kW=10.8665 kvar=-5.9854 Vmaxpu=1.5 Vminpu=0.5
New "Load.gout3p_seg_1_17a" phases=1 bus1=b4909.1 kV=7.942 kW=14.7486 kvar=7.155 Vmaxpu=1.5 Vminpu=0.5
New "Load.gout3p_seg_1_17b" phases=1 bus1=b4909.2 kV=7.9411 kW=-2.597 kvar=-13.8567 Vmaxpu=1.5 Vminpu=0.5
New "Load.gout3p_seg_1_17c" phases=1 bus1=b4909.3 kV=7.9446 kW=-12.6156 kvar=8.8526 Vmaxpu=1.5 Vminpu=0.5
New "Load.gin3p_seg_2_17a" phases=1 bus1=b4909.1 kV=7.942 kW=-12.538 kvar=-6.5012 Vmaxpu=1.5 Vminpu=0.5
New "Load.gin3p_seg_2_17b" phases=1 bus1=b4909.2 kV=7.9411 kW=1.3561 kvar=11.8637 Vmaxpu=1.5 Vminpu=0.5
New "Load.gin3p_seg_2_17c" phases=1 bus1=b4909.3 kV=7.9446 kW=10.8665 kvar=-5.9854 Vmaxpu=1.5 Vminpu=0.5
New "Load.gout3p_seg_1_18a" phases=1 bus1=b4909.1 kV=7.8841 kW=489.3074 kvar=-386.3757 Vmaxpu=1.5 Vminpu=0.5
New "Load.gout3p_seg_1_18b" phases=1 bus1=b4909.2 kV=7.8075 kW=-497.15 kvar=-150.092 Vmaxpu=1.5 Vminpu=0.5
New "Load.gout3p_seg_1_18c" phases=1 bus1=b4909.3 kV=7.9486 kW=55.5656 kvar=540.0434 Vmaxpu=1.5 Vminpu=0.5
New "Load.gin3p_seg_2_18a" phases=1 bus1=b4909.1 kV=7.8841 kW=-466.9525 kvar=375.0423 Vmaxpu=1.5 Vminpu=0.5
New "Load.gin3p_seg_2_18b" phases=1 bus1=b4909.2 kV=7.8075 kW=473.8001 kvar=143.6145 Vmaxpu=1.5 Vminpu=0.5
New "Load.gin3p_seg_2_18c" phases=1 bus1=b4909.3 kV=7.9486 kW=-46.2906 kvar=-524.6986 Vmaxpu=1.5 Vminpu=0.5
New "Load.gout3p_seg_1_19a" phases=1 bus1=b4909.1 kV=7.9845 kW=-133.72 kvar=1167.3625 Vmaxpu=1.5 Vminpu=0.5
New "Load.gout3p_seg_1_19b" phases=1 bus1=b4909.2 kV=7.9307 kW=912.0221 kvar=-446.583 Vmaxpu=1.5 Vminpu=0.5
New "Load.gout3p_seg_1_19c" phases=1 bus1=b4909.3 kV=7.7427 kW=-732.8165 kvar=-615.5961 Vmaxpu=1.5 Vminpu=0.5
New "Load.gin3p_seg_2_19a" phases=1 bus1=b4909.1 kV=7.9845 kW=140.4888 kvar=-1145.477 Vmaxpu=1.5 Vminpu=0.5
New "Load.gin3p_seg_2_19b" phases=1 bus1=b4909.2 kV=7.9307 kW=-874.4013 kvar=416.3949 Vmaxpu=1.5 Vminpu=0.5
New "Load.gin3p_seg_2_19c" phases=1 bus1=b4909.3 kV=7.7427 kW=743.8698 kvar=628.8087 Vmaxpu=1.5 Vminpu=0.5
New "Load.gout3p_seg_1_20a" phases=1 bus1=b4909.1 kV=7.938 kW=-5.4258 kvar=-6.1304 Vmaxpu=1.5 Vminpu=0.5
New "Load.gout3p_seg_1_20b" phases=1 bus1=b4909.2 kV=7.9422 kW=-3.245 kvar=7.4129 Vmaxpu=1.5 Vminpu=0.5
New "Load.gout3p_seg_1_20c" phases=1 bus1=b4909.3 kV=7.9443 kW=6.7033 kvar=1.2767 Vmaxpu=1.5 Vminpu=0.5
New "Load.gin3p_seg_2_20a" phases=1 bus1=b4909.1 kV=7.938 kW=7.1469 kvar=6.9662 Vmaxpu=1.5 Vminpu=0.5
New "Load.gin3p_seg_2_20b" phases=1 bus1=b4909.2 kV=7.9422 kW=1.9357 kvar=-8.2262 Vmaxpu=1.5 Vminpu=0.5
New "Load.gin3p_seg_2_20c" phases=1 bus1=b4909.3 kV=7.9443 kW=-8.4161 kvar=1.5339 Vmaxpu=1.5 Vminpu=0.5
New "Load.gout3p_seg_1_21a" phases=1 bus1=b4909.1 kV=7.9396 kW=2.7195 kvar=-0.8536 Vmaxpu=1.5 Vminpu=0.5
New "Load.gout3p_seg_1_21b" phases=1 bus1=b4909.2 kV=7.9417 kW=-3.0493 kvar=-1.1363 Vmaxpu=1.5 Vminpu=0.5
New "Load.gout3p_seg_1_21c" phases=1 bus1=b4909.3 kV=7.9444 kW=-1.0394 kvar=4.3815 Vmaxpu=1.5 Vminpu=0.5
New "Load.gin3p_seg_2_21a" phases=1 bus1=b4909.1 kV=7.9396 kW=-0.80257 kvar=1.617 Vmaxpu=1.5 Vminpu=0.5
New "Load.gin3p_seg_2_21b" phases=1 bus1=b4909.2 kV=7.9417 kW=1.7636 kvar=-0.15137 Vmaxpu=1.5 Vminpu=0.5
New "Load.gin3p_seg_2_21c" phases=1 bus1=b4909.3 kV=7.9444 kW=-0.6899 kvar=-1.545 Vmaxpu=1.5 Vminpu=0.5
New "Load.gout3p_seg_1_22a" phases=1 bus1=b4909.1 kV=7.5801 kW=-742.452 kvar=-1596.8852 Vmaxpu=1.5 Vminpu=0.5
New "Load.gout3p_seg_1_22b" phases=1 bus1=b4909.2 kV=7.852 kW=-867.564 kvar=1376.6442 Vmaxpu=1.5 Vminpu=0.5
...
